(SAIFILE
(SAIFVERSION "2.0")
(DIRECTION "backward")
(DESIGN )
(DATE "Thu Jan 31 22:11:58 2019")
(VENDOR "Synopsys, Inc")
(PROGRAM_NAME "vcd2saif")
(VERSION "C-2009.06-SP5")
(DIVIDER / )
(TIMESCALE 1 ps)
(DURATION 320000)
(INSTANCE C432_tb
  (INSTANCE UUT
    (NET
      (in1
        (T0 20000) (T1 300000) (TX 0)
        (TC 4) (IG 0)
      )
      (in102
        (T0 40000) (T1 280000) (TX 0)
        (TC 8) (IG 0)
      )
      (in105
        (T0 60000) (T1 260000) (TX 0)
        (TC 10) (IG 0)
      )
      (in108
        (T0 20000) (T1 300000) (TX 0)
        (TC 4) (IG 0)
      )
      (in11
        (T0 50000) (T1 270000) (TX 0)
        (TC 4) (IG 0)
      )
      (in112
        (T0 70000) (T1 250000) (TX 0)
        (TC 12) (IG 0)
      )
      (in115
        (T0 70000) (T1 250000) (TX 0)
        (TC 10) (IG 0)
      )
      (in14
        (T0 60000) (T1 260000) (TX 0)
        (TC 12) (IG 0)
      )
      (in17
        (T0 20000) (T1 300000) (TX 0)
        (TC 4) (IG 0)
      )
      (in21
        (T0 50000) (T1 270000) (TX 0)
        (TC 6) (IG 0)
      )
      (in24
        (T0 40000) (T1 280000) (TX 0)
        (TC 6) (IG 0)
      )
      (in27
        (T0 70000) (T1 250000) (TX 0)
        (TC 8) (IG 0)
      )
      (in30
        (T0 20000) (T1 300000) (TX 0)
        (TC 4) (IG 0)
      )
      (in34
        (T0 60000) (T1 260000) (TX 0)
        (TC 12) (IG 0)
      )
      (in37
        (T0 30000) (T1 290000) (TX 0)
        (TC 6) (IG 0)
      )
      (in4
        (T0 320000) (T1 0) (TX 0)
        (TC 0) (IG 0)
      )
      (in40
        (T0 80000) (T1 240000) (TX 0)
        (TC 12) (IG 0)
      )
      (in43
        (T0 20000) (T1 300000) (TX 0)
        (TC 4) (IG 0)
      )
      (in47
        (T0 70000) (T1 250000) (TX 0)
        (TC 14) (IG 0)
      )
      (in50
        (T0 40000) (T1 280000) (TX 0)
        (TC 8) (IG 0)
      )
      (in53
        (T0 70000) (T1 250000) (TX 0)
        (TC 14) (IG 0)
      )
      (in56
        (T0 20000) (T1 300000) (TX 0)
        (TC 4) (IG 0)
      )
      (in60
        (T0 60000) (T1 260000) (TX 0)
        (TC 12) (IG 0)
      )
      (in63
        (T0 40000) (T1 280000) (TX 0)
        (TC 8) (IG 0)
      )
      (in66
        (T0 60000) (T1 260000) (TX 0)
        (TC 12) (IG 0)
      )
      (in69
        (T0 20000) (T1 300000) (TX 0)
        (TC 4) (IG 0)
      )
      (in73
        (T0 60000) (T1 260000) (TX 0)
        (TC 12) (IG 0)
      )
      (in76
        (T0 30000) (T1 290000) (TX 0)
        (TC 6) (IG 0)
      )
      (in79
        (T0 70000) (T1 250000) (TX 0)
        (TC 14) (IG 0)
      )
      (in8
        (T0 30000) (T1 290000) (TX 0)
        (TC 6) (IG 0)
      )
      (in82
        (T0 20000) (T1 300000) (TX 0)
        (TC 4) (IG 0)
      )
      (in86
        (T0 90000) (T1 230000) (TX 0)
        (TC 12) (IG 0)
      )
      (in89
        (T0 50000) (T1 270000) (TX 0)
        (TC 8) (IG 0)
      )
      (in92
        (T0 70000) (T1 250000) (TX 0)
        (TC 14) (IG 0)
      )
      (in95
        (T0 20000) (T1 300000) (TX 0)
        (TC 4) (IG 0)
      )
      (in99
        (T0 50000) (T1 270000) (TX 0)
        (TC 10) (IG 0)
      )
      (out223
        (T0 199400) (T1 120100) (TX 500)
        (TC 13) (IG 0)
      )
      (out329
        (T0 159000) (T1 160700) (TX 300)
        (TC 10) (IG 0)
      )
      (out370
        (T0 151000) (T1 168700) (TX 300)
        (TC 31) (IG 0)
      )
      (out421
        (T0 13500) (T1 306100) (TX 400)
        (TC 31) (IG 0)
      )
      (out430
        (T0 142000) (T1 177800) (TX 200)
        (TC 27) (IG 0)
      )
      (out431
        (T0 141500) (T1 178100) (TX 400)
        (TC 31) (IG 0)
      )
      (out432
        (T0 140700) (T1 178900) (TX 400)
        (TC 39) (IG 0)
      )
    )
  )
)
)
