*SPEF "IEEE 1481-1999"
*DESIGN "Circuit432"
*DATE "Thu Jan 31 21:56:08 2019"
*VENDOR "SYNOPSYS INC"
*PROGRAM "Synopsys Design Compiler cmos"
*VERSION "C-2009.06-SP5"
*DESIGN_FLOW "SYNTHESIS"
*DIVIDER /
*DELIMITER :
*BUS_DELIMITER []
*T_UNIT 1.0 NS
*C_UNIT 0.0010 PF
*R_UNIT 1000.0 KOHM
*L_UNIT 1.0 HENRY

*PORTS

clk I *L 0.000e+00 *S 0.000e+00 0.000e+00 
rst I *L 0.000e+00 *S 0.000e+00 0.000e+00 
in4 I *L 0.000e+00 *S 0.000e+00 0.000e+00 
in17 I *L 0.000e+00 *S 0.000e+00 0.000e+00 
in30 I *L 0.000e+00 *S 0.000e+00 0.000e+00 
in43 I *L 0.000e+00 *S 0.000e+00 0.000e+00 
in56 I *L 0.000e+00 *S 0.000e+00 0.000e+00 
in69 I *L 0.000e+00 *S 0.000e+00 0.000e+00 
in82 I *L 0.000e+00 *S 0.000e+00 0.000e+00 
in95 I *L 0.000e+00 *S 0.000e+00 0.000e+00 
in108 I *L 0.000e+00 *S 0.000e+00 0.000e+00 
in1 I *L 0.000e+00 *S 0.000e+00 0.000e+00 
in11 I *L 0.000e+00 *S 0.000e+00 0.000e+00 
in24 I *L 0.000e+00 *S 0.000e+00 0.000e+00 
in37 I *L 0.000e+00 *S 0.000e+00 0.000e+00 
in50 I *L 0.000e+00 *S 0.000e+00 0.000e+00 
in63 I *L 0.000e+00 *S 0.000e+00 0.000e+00 
in76 I *L 0.000e+00 *S 0.000e+00 0.000e+00 
in89 I *L 0.000e+00 *S 0.000e+00 0.000e+00 
in102 I *L 0.000e+00 *S 0.000e+00 0.000e+00 
in8 I *L 0.000e+00 *S 0.000e+00 0.000e+00 
in21 I *L 0.000e+00 *S 0.000e+00 0.000e+00 
in34 I *L 0.000e+00 *S 0.000e+00 0.000e+00 
in47 I *L 0.000e+00 *S 0.000e+00 0.000e+00 
in60 I *L 0.000e+00 *S 0.000e+00 0.000e+00 
in73 I *L 0.000e+00 *S 0.000e+00 0.000e+00 
in86 I *L 0.000e+00 *S 0.000e+00 0.000e+00 
in99 I *L 0.000e+00 *S 0.000e+00 0.000e+00 
in112 I *L 0.000e+00 *S 0.000e+00 0.000e+00 
in14 I *L 0.000e+00 *S 0.000e+00 0.000e+00 
in27 I *L 0.000e+00 *S 0.000e+00 0.000e+00 
in40 I *L 0.000e+00 *S 0.000e+00 0.000e+00 
in53 I *L 0.000e+00 *S 0.000e+00 0.000e+00 
in66 I *L 0.000e+00 *S 0.000e+00 0.000e+00 
in79 I *L 0.000e+00 *S 0.000e+00 0.000e+00 
in92 I *L 0.000e+00 *S 0.000e+00 0.000e+00 
in105 I *L 0.000e+00 *S 0.000e+00 0.000e+00 
in115 I *L 0.000e+00 *S 0.000e+00 0.000e+00 
out223 O *L 0.000e+00 *S 1.028e-01 6.434e-02 
out329 O *L 0.000e+00 *S 1.045e-01 1.606e-01 
out370 O *L 0.000e+00 *S 5.362e-02 7.879e-02 
out421 O *L 0.000e+00 *S 1.040e-03 7.702e-04 
out430 O *L 0.000e+00 *S 6.610e-03 8.192e-03 
out431 O *L 0.000e+00 *S 1.350e-03 1.475e-03 
out432 O *L 0.000e+00 *S 2.115e-03 1.386e-03 

*R_NET in4 8.155e+00
*DRIVER in4
*CELL NULL
*C2_R1_C1 4.077e+00 3.293e-02 4.077e+00 
*LOADS
*RC Ckt432/M4/U1:A1 1.646e-02
*RC Ckt432/M3/U9:A3 1.685e-02
*RC Ckt432/M2/U23:A1 1.646e-02
*RC Ckt432/M1/U24:A 1.736e-02
*END

*R_NET in17 8.155e+00
*DRIVER in17
*CELL NULL
*C2_R1_C1 4.077e+00 3.293e-02 4.077e+00 
*LOADS
*RC Ckt432/M4/U4:A1 1.646e-02
*RC Ckt432/M3/U7:A3 1.685e-02
*RC Ckt432/M2/U21:A1 1.646e-02
*RC Ckt432/M1/U25:A 1.736e-02
*END

*R_NET in30 8.155e+00
*DRIVER in30
*CELL NULL
*C2_R1_C1 4.077e+00 3.293e-02 4.077e+00 
*LOADS
*RC Ckt432/M4/U7:A1 1.646e-02
*RC Ckt432/M3/U5:A3 1.685e-02
*RC Ckt432/M2/U25:A1 1.646e-02
*RC Ckt432/M1/U23:A 1.736e-02
*END

*R_NET in43 8.155e+00
*DRIVER in43
*CELL NULL
*C2_R1_C1 4.077e+00 3.293e-02 4.077e+00 
*LOADS
*RC Ckt432/M4/U10:A1 1.646e-02
*RC Ckt432/M3/U3:A3 1.685e-02
*RC Ckt432/M2/U27:A1 1.646e-02
*RC Ckt432/M1/U22:A 1.736e-02
*END

*R_NET in56 8.155e+00
*DRIVER in56
*CELL NULL
*C2_R1_C1 4.077e+00 3.293e-02 4.077e+00 
*LOADS
*RC Ckt432/M4/U13:A1 1.646e-02
*RC Ckt432/M3/U20:A3 1.685e-02
*RC Ckt432/M2/U29:A1 1.646e-02
*RC Ckt432/M1/U17:A 1.736e-02
*END

*R_NET in69 8.155e+00
*DRIVER in69
*CELL NULL
*C2_R1_C1 4.077e+00 3.293e-02 4.077e+00 
*LOADS
*RC Ckt432/M4/U16:A1 1.646e-02
*RC Ckt432/M3/U18:A3 1.685e-02
*RC Ckt432/M2/U18:A1 1.646e-02
*RC Ckt432/M1/U18:A 1.736e-02
*END

*R_NET in82 8.155e+00
*DRIVER in82
*CELL NULL
*C2_R1_C1 4.077e+00 3.293e-02 4.077e+00 
*LOADS
*RC Ckt432/M4/U19:A1 1.646e-02
*RC Ckt432/M3/U12:A3 1.685e-02
*RC Ckt432/M2/U16:A1 1.646e-02
*RC Ckt432/M1/U14:A 1.736e-02
*END

*R_NET in95 8.155e+00
*DRIVER in95
*CELL NULL
*C2_R1_C1 4.077e+00 3.293e-02 4.077e+00 
*LOADS
*RC Ckt432/M4/U22:A1 1.646e-02
*RC Ckt432/M3/U16:A3 1.685e-02
*RC Ckt432/M2/U14:A1 1.646e-02
*RC Ckt432/M1/U16:A 1.736e-02
*END

*R_NET in108 8.155e+00
*DRIVER in108
*CELL NULL
*C2_R1_C1 4.077e+00 3.293e-02 4.077e+00 
*LOADS
*RC Ckt432/M4/U25:A1 1.646e-02
*RC Ckt432/M3/U14:A3 1.685e-02
*RC Ckt432/M2/U12:A1 1.646e-02
*RC Ckt432/M1/U15:A 1.736e-02
*END

*R_NET in1 6.082e+00
*DRIVER in1
*CELL NULL
*C2_R1_C1 3.041e+00 2.308e-02 3.041e+00 
*LOADS
*RC Ckt432/M4/U2:A2 1.594e-02
*RC Ckt432/M1/U1:B1 1.573e-02
*RC Ckt432/M1/U19:C2 1.512e-02
*END

*R_NET in11 6.101e+00
*DRIVER in11
*CELL NULL
*C2_R1_C1 3.051e+00 2.308e-02 3.051e+00 
*LOADS
*RC Ckt432/M4/U5:A1 1.592e-02
*RC Ckt432/M1/U2:B1 1.573e-02
*RC Ckt432/M1/U19:B2 1.529e-02
*END

*R_NET in24 6.167e+00
*DRIVER in24
*CELL NULL
*C2_R1_C1 3.084e+00 2.308e-02 3.084e+00 
*LOADS
*RC Ckt432/M4/U8:A1 1.592e-02
*RC Ckt432/M1/U3:B1 1.573e-02
*RC Ckt432/M1/U21:A1 1.580e-02
*END

*R_NET in37 6.161e+00
*DRIVER in37
*CELL NULL
*C2_R1_C1 3.081e+00 2.308e-02 3.081e+00 
*LOADS
*RC Ckt432/M4/U11:A1 1.592e-02
*RC Ckt432/M1/U4:B1 1.573e-02
*RC Ckt432/M1/U21:B1 1.575e-02
*END

*R_NET in50 6.079e+00
*DRIVER in50
*CELL NULL
*C2_R1_C1 3.040e+00 2.308e-02 3.040e+00 
*LOADS
*RC Ckt432/M4/U14:A1 1.592e-02
*RC Ckt432/M1/U5:B1 1.573e-02
*RC Ckt432/M1/U11:C2 1.512e-02
*END

*R_NET in63 6.101e+00
*DRIVER in63
*CELL NULL
*C2_R1_C1 3.051e+00 2.308e-02 3.051e+00 
*LOADS
*RC Ckt432/M4/U17:A1 1.592e-02
*RC Ckt432/M1/U6:B1 1.573e-02
*RC Ckt432/M1/U11:B2 1.529e-02
*END

*R_NET in76 6.092e+00
*DRIVER in76
*CELL NULL
*C2_R1_C1 3.046e+00 2.308e-02 3.046e+00 
*LOADS
*RC Ckt432/M4/U20:A1 1.592e-02
*RC Ckt432/M1/U7:B1 1.573e-02
*RC Ckt432/M1/U13:C1 1.522e-02
*END

*R_NET in89 6.073e+00
*DRIVER in89
*CELL NULL
*C2_R1_C1 3.036e+00 2.308e-02 3.036e+00 
*LOADS
*RC Ckt432/M4/U23:A1 1.592e-02
*RC Ckt432/M1/U8:B1 1.573e-02
*RC Ckt432/M1/U13:A1 1.507e-02
*END

*R_NET in102 6.113e+00
*DRIVER in102
*CELL NULL
*C2_R1_C1 3.057e+00 2.308e-02 3.057e+00 
*LOADS
*RC Ckt432/M4/U26:A1 1.592e-02
*RC Ckt432/M1/U9:B1 1.573e-02
*RC Ckt432/M1/U13:B1 1.538e-02
*END

*R_NET in8 4.022e+00
*DRIVER in8
*CELL NULL
*C2_R1_C1 2.011e+00 1.407e-02 2.011e+00 
*LOADS
*RC Ckt432/M4/U2:B2 1.388e-02
*RC Ckt432/M2/U24:A 1.442e-02
*END

*R_NET in21 3.983e+00
*DRIVER in21
*CELL NULL
*C2_R1_C1 1.992e+00 1.407e-02 1.992e+00 
*LOADS
*RC Ckt432/M4/U5:B1 1.360e-02
*RC Ckt432/M2/U22:A 1.442e-02
*END

*R_NET in34 3.983e+00
*DRIVER in34
*CELL NULL
*C2_R1_C1 1.992e+00 1.407e-02 1.992e+00 
*LOADS
*RC Ckt432/M4/U8:B1 1.360e-02
*RC Ckt432/M2/U26:A 1.442e-02
*END

*R_NET in47 3.983e+00
*DRIVER in47
*CELL NULL
*C2_R1_C1 1.992e+00 1.407e-02 1.992e+00 
*LOADS
*RC Ckt432/M4/U11:B1 1.360e-02
*RC Ckt432/M2/U28:A 1.442e-02
*END

*R_NET in60 3.983e+00
*DRIVER in60
*CELL NULL
*C2_R1_C1 1.992e+00 1.407e-02 1.992e+00 
*LOADS
*RC Ckt432/M4/U14:B1 1.360e-02
*RC Ckt432/M2/U30:A 1.442e-02
*END

*R_NET in73 3.983e+00
*DRIVER in73
*CELL NULL
*C2_R1_C1 1.992e+00 1.407e-02 1.992e+00 
*LOADS
*RC Ckt432/M4/U17:B1 1.360e-02
*RC Ckt432/M2/U19:A 1.442e-02
*END

*R_NET in86 3.983e+00
*DRIVER in86
*CELL NULL
*C2_R1_C1 1.992e+00 1.407e-02 1.992e+00 
*LOADS
*RC Ckt432/M4/U20:B1 1.360e-02
*RC Ckt432/M2/U17:A 1.442e-02
*END

*R_NET in99 3.983e+00
*DRIVER in99
*CELL NULL
*C2_R1_C1 1.992e+00 1.407e-02 1.992e+00 
*LOADS
*RC Ckt432/M4/U23:B1 1.360e-02
*RC Ckt432/M2/U15:A 1.442e-02
*END

*R_NET in112 3.983e+00
*DRIVER in112
*CELL NULL
*C2_R1_C1 1.992e+00 1.407e-02 1.992e+00 
*LOADS
*RC Ckt432/M4/U26:B1 1.360e-02
*RC Ckt432/M2/U13:A 1.442e-02
*END

*R_NET in14 4.063e+00
*DRIVER in14
*CELL NULL
*C2_R1_C1 2.032e+00 1.407e-02 2.032e+00 
*LOADS
*RC Ckt432/M4/U3:A2 1.417e-02
*RC Ckt432/M3/U10:A 1.442e-02
*END

*R_NET in27 3.998e+00
*DRIVER in27
*CELL NULL
*C2_R1_C1 1.999e+00 1.407e-02 1.999e+00 
*LOADS
*RC Ckt432/M4/U6:A1 1.371e-02
*RC Ckt432/M3/U8:A 1.442e-02
*END

*R_NET in40 3.998e+00
*DRIVER in40
*CELL NULL
*C2_R1_C1 1.999e+00 1.407e-02 1.999e+00 
*LOADS
*RC Ckt432/M4/U9:A1 1.371e-02
*RC Ckt432/M3/U6:A 1.442e-02
*END

*R_NET in53 3.998e+00
*DRIVER in53
*CELL NULL
*C2_R1_C1 1.999e+00 1.407e-02 1.999e+00 
*LOADS
*RC Ckt432/M4/U12:A1 1.371e-02
*RC Ckt432/M3/U4:A 1.442e-02
*END

*R_NET in66 3.998e+00
*DRIVER in66
*CELL NULL
*C2_R1_C1 1.999e+00 1.407e-02 1.999e+00 
*LOADS
*RC Ckt432/M4/U15:A1 1.371e-02
*RC Ckt432/M3/U21:A 1.442e-02
*END

*R_NET in79 3.998e+00
*DRIVER in79
*CELL NULL
*C2_R1_C1 1.999e+00 1.407e-02 1.999e+00 
*LOADS
*RC Ckt432/M4/U18:A1 1.371e-02
*RC Ckt432/M3/U19:A 1.442e-02
*END

*R_NET in92 3.998e+00
*DRIVER in92
*CELL NULL
*C2_R1_C1 1.999e+00 1.407e-02 1.999e+00 
*LOADS
*RC Ckt432/M4/U21:A1 1.371e-02
*RC Ckt432/M3/U13:A 1.442e-02
*END

*R_NET in105 3.998e+00
*DRIVER in105
*CELL NULL
*C2_R1_C1 1.999e+00 1.407e-02 1.999e+00 
*LOADS
*RC Ckt432/M4/U24:A1 1.371e-02
*RC Ckt432/M3/U17:A 1.442e-02
*END

*R_NET in115 3.998e+00
*DRIVER in115
*CELL NULL
*C2_R1_C1 1.999e+00 1.407e-02 1.999e+00 
*LOADS
*RC Ckt432/M4/U27:A1 1.371e-02
*RC Ckt432/M3/U15:A 1.442e-02
*END

*R_NET out223 4.213e+01
*DRIVER Ckt432/M1/U10:ZN
*CELL OR2_X1
*C2_R1_C1 2.107e+01 2.394e-01 2.107e+01 
*LOADS
*RC Ckt432/M4/U2:A1 2.915e-02
*RC Ckt432/M4/U5:A2 2.918e-02
*RC Ckt432/M4/U8:A2 2.918e-02
*RC Ckt432/M4/U11:A2 2.918e-02
*RC Ckt432/M4/U14:A2 2.918e-02
*RC Ckt432/M4/U17:A2 2.918e-02
*RC Ckt432/M4/U20:A2 2.918e-02
*RC Ckt432/M4/U23:A2 2.918e-02
*RC Ckt432/M4/U26:A2 2.918e-02
*RC Ckt432/M1/U1:A 2.894e-02
*RC Ckt432/M1/U2:A 2.894e-02
*RC Ckt432/M1/U3:A 2.894e-02
*RC Ckt432/M1/U4:A 2.894e-02
*RC Ckt432/M1/U5:A 2.894e-02
*RC Ckt432/M1/U6:A 2.894e-02
*RC Ckt432/M1/U7:A 2.894e-02
*RC Ckt432/M1/U8:A 2.894e-02
*RC Ckt432/M1/U9:A 2.894e-02
*RC out223 7.886e-03
*END

*R_NET out329 4.085e+01
*DRIVER Ckt432/M2/U10:ZN
*CELL NAND4_X1
*C2_R1_C1 2.043e+01 2.394e-01 2.043e+01 
*LOADS
*RC Ckt432/M4/U2:B1 2.784e-02
*RC Ckt432/M4/U5:B2 2.834e-02
*RC Ckt432/M4/U8:B2 2.834e-02
*RC Ckt432/M4/U11:B2 2.834e-02
*RC Ckt432/M4/U14:B2 2.834e-02
*RC Ckt432/M4/U17:B2 2.834e-02
*RC Ckt432/M4/U20:B2 2.834e-02
*RC Ckt432/M4/U23:B2 2.834e-02
*RC Ckt432/M4/U26:B2 2.834e-02
*RC Ckt432/M2/U1:A1 2.803e-02
*RC Ckt432/M2/U2:A1 2.803e-02
*RC Ckt432/M2/U3:A1 2.803e-02
*RC Ckt432/M2/U4:A1 2.803e-02
*RC Ckt432/M2/U5:A1 2.803e-02
*RC Ckt432/M2/U6:A1 2.803e-02
*RC Ckt432/M2/U7:A1 2.803e-02
*RC Ckt432/M2/U8:A1 2.803e-02
*RC Ckt432/M2/U9:A1 2.803e-02
*RC out329 7.886e-03
*END

*R_NET out370 1.957e+01
*DRIVER Ckt432/M3/U1:ZN
*CELL NAND4_X1
*C2_R1_C1 9.785e+00 9.378e-02 9.785e+00 
*LOADS
*RC Ckt432/M4/U3:A1 1.936e-02
*RC Ckt432/M4/U6:A2 1.998e-02
*RC Ckt432/M4/U9:A2 1.998e-02
*RC Ckt432/M4/U12:A2 1.998e-02
*RC Ckt432/M4/U15:A2 1.998e-02
*RC Ckt432/M4/U18:A2 1.998e-02
*RC Ckt432/M4/U21:A2 1.998e-02
*RC Ckt432/M4/U24:A2 1.998e-02
*RC Ckt432/M4/U27:A2 1.998e-02
*RC out370 4.368e-03
*END

*R_NET out421 3.097e-01
*DRIVER Ckt432/M5/U1:ZN
*CELL AND2_X1
*C2_R1_C1 1.549e-01 6.236e-03 1.549e-01 
*LOADS
*RC out421 1.931e-03
*END

*R_NET out430 1.613e+00
*DRIVER Ckt432/M5/U4:ZN
*CELL NAND4_X1
*C2_R1_C1 8.065e-01 1.407e-02 8.065e-01 
*LOADS
*RC Ckt432/M5/U2:A4 8.889e-03
*RC out430 2.458e-03
*END

*R_NET out431 3.097e-01
*DRIVER Ckt432/M5/U5:ZN
*CELL NAND3_X1
*C2_R1_C1 1.549e-01 6.236e-03 1.549e-01 
*LOADS
*RC out431 1.931e-03
*END

*R_NET out432 3.097e-01
*DRIVER Ckt432/M5/U8:ZN
*CELL OAI21_X1
*C2_R1_C1 1.549e-01 6.236e-03 1.549e-01 
*LOADS
*RC out432 1.931e-03
*END

*R_NET Ckt432/X1\[8\] 3.944e+00
*DRIVER Ckt432/M1/U1:ZN
*CELL OAI21_X1
*C2_R1_C1 1.972e+00 1.407e-02 1.972e+00 
*LOADS
*RC Ckt432/M3/U9:A2 1.368e-02
*RC Ckt432/M2/U23:A3 1.407e-02
*END

*R_NET Ckt432/X1\[7\] 3.944e+00
*DRIVER Ckt432/M1/U2:ZN
*CELL OAI21_X1
*C2_R1_C1 1.972e+00 1.407e-02 1.972e+00 
*LOADS
*RC Ckt432/M3/U7:A2 1.368e-02
*RC Ckt432/M2/U21:A3 1.407e-02
*END

*R_NET Ckt432/X1\[6\] 3.944e+00
*DRIVER Ckt432/M1/U3:ZN
*CELL OAI21_X1
*C2_R1_C1 1.972e+00 1.407e-02 1.972e+00 
*LOADS
*RC Ckt432/M3/U5:A2 1.368e-02
*RC Ckt432/M2/U25:A3 1.407e-02
*END

*R_NET Ckt432/X1\[5\] 3.944e+00
*DRIVER Ckt432/M1/U4:ZN
*CELL OAI21_X1
*C2_R1_C1 1.972e+00 1.407e-02 1.972e+00 
*LOADS
*RC Ckt432/M3/U3:A2 1.368e-02
*RC Ckt432/M2/U27:A3 1.407e-02
*END

*R_NET Ckt432/X1\[4\] 3.944e+00
*DRIVER Ckt432/M1/U5:ZN
*CELL OAI21_X1
*C2_R1_C1 1.972e+00 1.407e-02 1.972e+00 
*LOADS
*RC Ckt432/M3/U20:A2 1.368e-02
*RC Ckt432/M2/U29:A3 1.407e-02
*END

*R_NET Ckt432/X1\[3\] 3.944e+00
*DRIVER Ckt432/M1/U6:ZN
*CELL OAI21_X1
*C2_R1_C1 1.972e+00 1.407e-02 1.972e+00 
*LOADS
*RC Ckt432/M3/U18:A2 1.368e-02
*RC Ckt432/M2/U18:A3 1.407e-02
*END

*R_NET Ckt432/X1\[2\] 3.944e+00
*DRIVER Ckt432/M1/U7:ZN
*CELL OAI21_X1
*C2_R1_C1 1.972e+00 1.407e-02 1.972e+00 
*LOADS
*RC Ckt432/M3/U12:A2 1.368e-02
*RC Ckt432/M2/U16:A3 1.407e-02
*END

*R_NET Ckt432/X1\[1\] 3.944e+00
*DRIVER Ckt432/M1/U8:ZN
*CELL OAI21_X1
*C2_R1_C1 1.972e+00 1.407e-02 1.972e+00 
*LOADS
*RC Ckt432/M3/U16:A2 1.368e-02
*RC Ckt432/M2/U14:A3 1.407e-02
*END

*R_NET Ckt432/X1\[0\] 3.944e+00
*DRIVER Ckt432/M1/U9:ZN
*CELL OAI21_X1
*C2_R1_C1 1.972e+00 1.407e-02 1.972e+00 
*LOADS
*RC Ckt432/M3/U14:A2 1.368e-02
*RC Ckt432/M2/U12:A3 1.407e-02
*END

*R_NET Ckt432/X2\[8\] 1.832e+00
*DRIVER Ckt432/M2/U1:ZN
*CELL NAND2_X1
*C2_R1_C1 9.159e-01 6.236e-03 9.159e-01 
*LOADS
*RC Ckt432/M3/U9:A1 1.142e-02
*END

*R_NET Ckt432/X2\[7\] 1.832e+00
*DRIVER Ckt432/M2/U2:ZN
*CELL NAND2_X1
*C2_R1_C1 9.159e-01 6.236e-03 9.159e-01 
*LOADS
*RC Ckt432/M3/U7:A1 1.142e-02
*END

*R_NET Ckt432/X2\[6\] 1.832e+00
*DRIVER Ckt432/M2/U3:ZN
*CELL NAND2_X1
*C2_R1_C1 9.159e-01 6.236e-03 9.159e-01 
*LOADS
*RC Ckt432/M3/U5:A1 1.142e-02
*END

*R_NET Ckt432/X2\[5\] 1.832e+00
*DRIVER Ckt432/M2/U4:ZN
*CELL NAND2_X1
*C2_R1_C1 9.159e-01 6.236e-03 9.159e-01 
*LOADS
*RC Ckt432/M3/U3:A1 1.142e-02
*END

*R_NET Ckt432/X2\[4\] 1.832e+00
*DRIVER Ckt432/M2/U5:ZN
*CELL NAND2_X1
*C2_R1_C1 9.159e-01 6.236e-03 9.159e-01 
*LOADS
*RC Ckt432/M3/U20:A1 1.142e-02
*END

*R_NET Ckt432/X2\[3\] 1.832e+00
*DRIVER Ckt432/M2/U6:ZN
*CELL NAND2_X1
*C2_R1_C1 9.159e-01 6.236e-03 9.159e-01 
*LOADS
*RC Ckt432/M3/U18:A1 1.142e-02
*END

*R_NET Ckt432/X2\[2\] 1.832e+00
*DRIVER Ckt432/M2/U7:ZN
*CELL NAND2_X1
*C2_R1_C1 9.159e-01 6.236e-03 9.159e-01 
*LOADS
*RC Ckt432/M3/U12:A1 1.142e-02
*END

*R_NET Ckt432/X2\[1\] 1.832e+00
*DRIVER Ckt432/M2/U8:ZN
*CELL NAND2_X1
*C2_R1_C1 9.159e-01 6.236e-03 9.159e-01 
*LOADS
*RC Ckt432/M3/U16:A1 1.142e-02
*END

*R_NET Ckt432/X2\[0\] 1.832e+00
*DRIVER Ckt432/M2/U9:ZN
*CELL NAND2_X1
*C2_R1_C1 9.159e-01 6.236e-03 9.159e-01 
*LOADS
*RC Ckt432/M3/U14:A1 1.142e-02
*END

*R_NET Ckt432/I\[8\] 1.228e+00
*DRIVER Ckt432/M4/U1:ZN
*CELL NAND3_X1
*C2_R1_C1 6.139e-01 6.236e-03 6.139e-01 
*LOADS
*RC Ckt432/M5/U1:A1 7.657e-03
*END

*R_NET Ckt432/I\[7\] 5.990e+00
*DRIVER Ckt432/M4/U4:ZN
*CELL NAND3_X1
*C2_R1_C1 2.995e+00 2.308e-02 2.995e+00 
*LOADS
*RC Ckt432/M5/U4:A1 1.465e-02
*RC Ckt432/M5/U5:A3 1.564e-02
*RC Ckt432/M5/U8:A 1.579e-02
*END

*R_NET Ckt432/I\[6\] 6.032e+00
*DRIVER Ckt432/M4/U7:ZN
*CELL NAND3_X1
*C2_R1_C1 3.016e+00 2.308e-02 3.016e+00 
*LOADS
*RC Ckt432/M5/U4:A2 1.521e-02
*RC Ckt432/M5/U5:A1 1.518e-02
*RC Ckt432/M5/U9:A 1.602e-02
*END

*R_NET Ckt432/I\[5\] 6.135e+00
*DRIVER Ckt432/M4/U10:ZN
*CELL NAND3_X1
*C2_R1_C1 3.068e+00 2.308e-02 3.068e+00 
*LOADS
*RC Ckt432/M5/U4:A3 1.554e-02
*RC Ckt432/M5/U6:A3 1.564e-02
*RC Ckt432/M5/U11:A 1.602e-02
*END

*R_NET Ckt432/I\[4\] 6.029e+00
*DRIVER Ckt432/M4/U13:ZN
*CELL NAND3_X1
*C2_R1_C1 3.014e+00 2.308e-02 3.014e+00 
*LOADS
*RC Ckt432/M5/U4:A4 1.571e-02
*RC Ckt432/M5/U6:A1 1.518e-02
*RC Ckt432/M5/U10:C1 1.550e-02
*END

*R_NET Ckt432/I\[3\] 3.998e+00
*DRIVER Ckt432/M4/U16:ZN
*CELL NAND3_X1
*C2_R1_C1 1.999e+00 1.407e-02 1.999e+00 
*LOADS
*RC Ckt432/M5/U7:A1 1.371e-02
*RC Ckt432/M5/U12:A 1.442e-02
*END

*R_NET Ckt432/I\[2\] 3.945e+00
*DRIVER Ckt432/M4/U19:ZN
*CELL NAND3_X1
*C2_R1_C1 1.972e+00 1.407e-02 1.972e+00 
*LOADS
*RC Ckt432/M5/U7:A2 1.417e-02
*RC Ckt432/M5/U10:B1 1.358e-02
*END

*R_NET Ckt432/I\[1\] 2.010e+00
*DRIVER Ckt432/M4/U22:ZN
*CELL NAND3_X1
*C2_R1_C1 1.005e+00 6.236e-03 1.005e+00 
*LOADS
*RC Ckt432/M5/U13:A 1.253e-02
*END

*R_NET Ckt432/I\[0\] 2.010e+00
*DRIVER Ckt432/M4/U25:ZN
*CELL NAND3_X1
*C2_R1_C1 1.005e+00 6.236e-03 1.005e+00 
*LOADS
*RC Ckt432/M5/U3:A 1.253e-02
*END

*R_NET Ckt432/M1/n1 3.840e+00
*DRIVER Ckt432/M1/U24:ZN
*CELL INV_X1
*C2_R1_C1 1.920e+00 1.407e-02 1.920e+00 
*LOADS
*RC Ckt432/M1/U19:C1 1.350e-02
*RC Ckt432/M1/U1:B2 1.352e-02
*END

*R_NET Ckt432/M1/n2 3.926e+00
*DRIVER Ckt432/M1/U25:ZN
*CELL INV_X1
*C2_R1_C1 1.963e+00 1.407e-02 1.963e+00 
*LOADS
*RC Ckt432/M1/U19:B1 1.410e-02
*RC Ckt432/M1/U2:B2 1.352e-02
*END

*R_NET Ckt432/M1/n3 3.855e+00
*DRIVER Ckt432/M1/U23:ZN
*CELL INV_X1
*C2_R1_C1 1.927e+00 1.407e-02 1.927e+00 
*LOADS
*RC Ckt432/M1/U21:A2 1.360e-02
*RC Ckt432/M1/U3:B2 1.352e-02
*END

*R_NET Ckt432/M1/n4 3.886e+00
*DRIVER Ckt432/M1/U22:ZN
*CELL INV_X1
*C2_R1_C1 1.943e+00 1.407e-02 1.943e+00 
*LOADS
*RC Ckt432/M1/U21:B2 1.382e-02
*RC Ckt432/M1/U4:B2 1.352e-02
*END

*R_NET Ckt432/M1/n5 3.840e+00
*DRIVER Ckt432/M1/U17:ZN
*CELL INV_X1
*C2_R1_C1 1.920e+00 1.407e-02 1.920e+00 
*LOADS
*RC Ckt432/M1/U11:C1 1.350e-02
*RC Ckt432/M1/U5:B2 1.352e-02
*END

*R_NET Ckt432/M1/n6 3.926e+00
*DRIVER Ckt432/M1/U18:ZN
*CELL INV_X1
*C2_R1_C1 1.963e+00 1.407e-02 1.963e+00 
*LOADS
*RC Ckt432/M1/U11:B1 1.410e-02
*RC Ckt432/M1/U6:B2 1.352e-02
*END

*R_NET Ckt432/M1/n7 3.842e+00
*DRIVER Ckt432/M1/U14:ZN
*CELL INV_X1
*C2_R1_C1 1.921e+00 1.407e-02 1.921e+00 
*LOADS
*RC Ckt432/M1/U13:C2 1.351e-02
*RC Ckt432/M1/U7:B2 1.352e-02
*END

*R_NET Ckt432/M1/n8 3.865e+00
*DRIVER Ckt432/M1/U16:ZN
*CELL INV_X1
*C2_R1_C1 1.933e+00 1.407e-02 1.933e+00 
*LOADS
*RC Ckt432/M1/U13:A2 1.368e-02
*RC Ckt432/M1/U8:B2 1.352e-02
*END

*R_NET Ckt432/M1/n9 3.891e+00
*DRIVER Ckt432/M1/U15:ZN
*CELL INV_X1
*C2_R1_C1 1.945e+00 1.407e-02 1.945e+00 
*LOADS
*RC Ckt432/M1/U13:B2 1.386e-02
*RC Ckt432/M1/U9:B2 1.352e-02
*END

*R_NET Ckt432/M1/n10 1.257e+00
*DRIVER Ckt432/M1/U19:ZN
*CELL OAI221_X1
*C2_R1_C1 6.283e-01 6.236e-03 6.283e-01 
*LOADS
*RC Ckt432/M1/U10:A1 7.836e-03
*END

*R_NET Ckt432/M1/n11 1.252e+00
*DRIVER Ckt432/M1/U11:ZN
*CELL OAI221_X1
*C2_R1_C1 6.258e-01 6.236e-03 6.258e-01 
*LOADS
*RC Ckt432/M1/U10:A2 7.805e-03
*END

*R_NET Ckt432/M1/n12 1.940e+00
*DRIVER Ckt432/M1/U12:ZN
*CELL INV_X1
*C2_R1_C1 9.700e-01 6.236e-03 9.700e-01 
*LOADS
*RC Ckt432/M1/U11:A 1.210e-02
*END

*R_NET Ckt432/M1/n13 2.010e+00
*DRIVER Ckt432/M1/U13:ZN
*CELL OAI222_X1
*C2_R1_C1 1.005e+00 6.236e-03 1.005e+00 
*LOADS
*RC Ckt432/M1/U12:A 1.253e-02
*END

*R_NET Ckt432/M1/n14 1.940e+00
*DRIVER Ckt432/M1/U20:ZN
*CELL INV_X1
*C2_R1_C1 9.700e-01 6.236e-03 9.700e-01 
*LOADS
*RC Ckt432/M1/U19:A 1.210e-02
*END

*R_NET Ckt432/M1/n15 2.010e+00
*DRIVER Ckt432/M1/U21:ZN
*CELL OAI22_X1
*C2_R1_C1 1.005e+00 6.236e-03 1.005e+00 
*LOADS
*RC Ckt432/M1/U20:A 1.253e-02
*END

*R_NET Ckt432/M2/n1 3.291e+00
*DRIVER Ckt432/M2/U23:ZN
*CELL NAND3_X1
*C2_R1_C1 1.645e+00 1.407e-02 1.645e+00 
*LOADS
*RC Ckt432/M2/U20:A2 8.983e-03
*RC Ckt432/M2/U1:A2 1.417e-02
*END

*R_NET Ckt432/M2/n2 3.328e+00
*DRIVER Ckt432/M2/U21:ZN
*CELL NAND3_X1
*C2_R1_C1 1.664e+00 1.407e-02 1.664e+00 
*LOADS
*RC Ckt432/M2/U20:A3 9.245e-03
*RC Ckt432/M2/U2:A2 1.417e-02
*END

*R_NET Ckt432/M2/n3 3.243e+00
*DRIVER Ckt432/M2/U25:ZN
*CELL NAND3_X1
*C2_R1_C1 1.621e+00 1.407e-02 1.621e+00 
*LOADS
*RC Ckt432/M2/U20:A1 8.647e-03
*RC Ckt432/M2/U3:A2 1.417e-02
*END

*R_NET Ckt432/M2/n4 3.958e+00
*DRIVER Ckt432/M2/U27:ZN
*CELL NAND3_X1
*C2_R1_C1 1.979e+00 1.407e-02 1.979e+00 
*LOADS
*RC Ckt432/M2/U10:A2 1.368e-02
*RC Ckt432/M2/U4:A2 1.417e-02
*END

*R_NET Ckt432/M2/n5 3.885e+00
*DRIVER Ckt432/M2/U29:ZN
*CELL NAND3_X1
*C2_R1_C1 1.943e+00 1.407e-02 1.943e+00 
*LOADS
*RC Ckt432/M2/U10:A1 1.317e-02
*RC Ckt432/M2/U5:A2 1.417e-02
*END

*R_NET Ckt432/M2/n6 3.220e+00
*DRIVER Ckt432/M2/U18:ZN
*CELL NAND3_X1
*C2_R1_C1 1.610e+00 1.407e-02 1.610e+00 
*LOADS
*RC Ckt432/M2/U11:A1 8.483e-03
*RC Ckt432/M2/U6:A2 1.417e-02
*END

*R_NET Ckt432/M2/n7 3.265e+00
*DRIVER Ckt432/M2/U16:ZN
*CELL NAND3_X1
*C2_R1_C1 1.633e+00 1.407e-02 1.633e+00 
*LOADS
*RC Ckt432/M2/U11:A2 8.805e-03
*RC Ckt432/M2/U7:A2 1.417e-02
*END

*R_NET Ckt432/M2/n8 3.287e+00
*DRIVER Ckt432/M2/U14:ZN
*CELL NAND3_X1
*C2_R1_C1 1.644e+00 1.407e-02 1.644e+00 
*LOADS
*RC Ckt432/M2/U11:A3 8.959e-03
*RC Ckt432/M2/U8:A2 1.417e-02
*END

*R_NET Ckt432/M2/n9 3.308e+00
*DRIVER Ckt432/M2/U12:ZN
*CELL NAND3_X1
*C2_R1_C1 1.654e+00 1.407e-02 1.654e+00 
*LOADS
*RC Ckt432/M2/U11:A4 9.102e-03
*RC Ckt432/M2/U9:A2 1.417e-02
*END

*R_NET Ckt432/M2/n10 1.948e+00
*DRIVER Ckt432/M2/U20:ZN
*CELL AND3_X1
*C2_R1_C1 9.739e-01 6.236e-03 9.739e-01 
*LOADS
*RC Ckt432/M2/U10:A3 1.215e-02
*END

*R_NET Ckt432/M2/n11 1.970e+00
*DRIVER Ckt432/M2/U11:ZN
*CELL AND4_X1
*C2_R1_C1 9.848e-01 6.236e-03 9.848e-01 
*LOADS
*RC Ckt432/M2/U10:A4 1.228e-02
*END

*R_NET Ckt432/M2/n12 1.931e+00
*DRIVER Ckt432/M2/U13:ZN
*CELL INV_X1
*C2_R1_C1 9.655e-01 6.236e-03 9.655e-01 
*LOADS
*RC Ckt432/M2/U12:A2 1.204e-02
*END

*R_NET Ckt432/M2/n13 1.931e+00
*DRIVER Ckt432/M2/U15:ZN
*CELL INV_X1
*C2_R1_C1 9.655e-01 6.236e-03 9.655e-01 
*LOADS
*RC Ckt432/M2/U14:A2 1.204e-02
*END

*R_NET Ckt432/M2/n14 1.931e+00
*DRIVER Ckt432/M2/U17:ZN
*CELL INV_X1
*C2_R1_C1 9.655e-01 6.236e-03 9.655e-01 
*LOADS
*RC Ckt432/M2/U16:A2 1.204e-02
*END

*R_NET Ckt432/M2/n15 1.931e+00
*DRIVER Ckt432/M2/U19:ZN
*CELL INV_X1
*C2_R1_C1 9.655e-01 6.236e-03 9.655e-01 
*LOADS
*RC Ckt432/M2/U18:A2 1.204e-02
*END

*R_NET Ckt432/M2/n16 1.931e+00
*DRIVER Ckt432/M2/U22:ZN
*CELL INV_X1
*C2_R1_C1 9.655e-01 6.236e-03 9.655e-01 
*LOADS
*RC Ckt432/M2/U21:A2 1.204e-02
*END

*R_NET Ckt432/M2/n17 1.931e+00
*DRIVER Ckt432/M2/U24:ZN
*CELL INV_X1
*C2_R1_C1 9.655e-01 6.236e-03 9.655e-01 
*LOADS
*RC Ckt432/M2/U23:A2 1.204e-02
*END

*R_NET Ckt432/M2/n18 1.931e+00
*DRIVER Ckt432/M2/U26:ZN
*CELL INV_X1
*C2_R1_C1 9.655e-01 6.236e-03 9.655e-01 
*LOADS
*RC Ckt432/M2/U25:A2 1.204e-02
*END

*R_NET Ckt432/M2/n19 1.931e+00
*DRIVER Ckt432/M2/U28:ZN
*CELL INV_X1
*C2_R1_C1 9.655e-01 6.236e-03 9.655e-01 
*LOADS
*RC Ckt432/M2/U27:A2 1.204e-02
*END

*R_NET Ckt432/M2/n20 1.931e+00
*DRIVER Ckt432/M2/U30:ZN
*CELL INV_X1
*C2_R1_C1 9.655e-01 6.236e-03 9.655e-01 
*LOADS
*RC Ckt432/M2/U29:A2 1.204e-02
*END

*R_NET Ckt432/M3/n1 1.832e+00
*DRIVER Ckt432/M3/U20:ZN
*CELL NAND4_X1
*C2_R1_C1 9.159e-01 6.236e-03 9.159e-01 
*LOADS
*RC Ckt432/M3/U1:A1 1.142e-02
*END

*R_NET Ckt432/M3/n2 1.905e+00
*DRIVER Ckt432/M3/U18:ZN
*CELL NAND4_X1
*C2_R1_C1 9.525e-01 6.236e-03 9.525e-01 
*LOADS
*RC Ckt432/M3/U1:A2 1.188e-02
*END

*R_NET Ckt432/M3/n3 1.948e+00
*DRIVER Ckt432/M3/U11:ZN
*CELL AND3_X1
*C2_R1_C1 9.739e-01 6.236e-03 9.739e-01 
*LOADS
*RC Ckt432/M3/U1:A3 1.215e-02
*END

*R_NET Ckt432/M3/n4 1.970e+00
*DRIVER Ckt432/M3/U2:ZN
*CELL AND4_X1
*C2_R1_C1 9.848e-01 6.236e-03 9.848e-01 
*LOADS
*RC Ckt432/M3/U1:A4 1.228e-02
*END

*R_NET Ckt432/M3/n5 1.166e+00
*DRIVER Ckt432/M3/U9:ZN
*CELL NAND4_X1
*C2_R1_C1 5.831e-01 6.236e-03 5.831e-01 
*LOADS
*RC Ckt432/M3/U2:A1 7.273e-03
*END

*R_NET Ckt432/M3/n6 1.212e+00
*DRIVER Ckt432/M3/U7:ZN
*CELL NAND4_X1
*C2_R1_C1 6.060e-01 6.236e-03 6.060e-01 
*LOADS
*RC Ckt432/M3/U2:A2 7.558e-03
*END

*R_NET Ckt432/M3/n7 1.234e+00
*DRIVER Ckt432/M3/U5:ZN
*CELL NAND4_X1
*C2_R1_C1 6.169e-01 6.236e-03 6.169e-01 
*LOADS
*RC Ckt432/M3/U2:A3 7.694e-03
*END

*R_NET Ckt432/M3/n8 1.254e+00
*DRIVER Ckt432/M3/U3:ZN
*CELL NAND4_X1
*C2_R1_C1 6.271e-01 6.236e-03 6.271e-01 
*LOADS
*RC Ckt432/M3/U2:A4 7.821e-03
*END

*R_NET Ckt432/M3/n9 1.970e+00
*DRIVER Ckt432/M3/U4:ZN
*CELL INV_X1
*C2_R1_C1 9.848e-01 6.236e-03 9.848e-01 
*LOADS
*RC Ckt432/M3/U3:A4 1.228e-02
*END

*R_NET Ckt432/M3/n10 1.970e+00
*DRIVER Ckt432/M3/U6:ZN
*CELL INV_X1
*C2_R1_C1 9.848e-01 6.236e-03 9.848e-01 
*LOADS
*RC Ckt432/M3/U5:A4 1.228e-02
*END

*R_NET Ckt432/M3/n11 1.970e+00
*DRIVER Ckt432/M3/U8:ZN
*CELL INV_X1
*C2_R1_C1 9.848e-01 6.236e-03 9.848e-01 
*LOADS
*RC Ckt432/M3/U7:A4 1.228e-02
*END

*R_NET Ckt432/M3/n12 1.970e+00
*DRIVER Ckt432/M3/U10:ZN
*CELL INV_X1
*C2_R1_C1 9.848e-01 6.236e-03 9.848e-01 
*LOADS
*RC Ckt432/M3/U9:A4 1.228e-02
*END

*R_NET Ckt432/M3/n13 1.189e+00
*DRIVER Ckt432/M3/U16:ZN
*CELL NAND4_X1
*C2_R1_C1 5.947e-01 6.236e-03 5.947e-01 
*LOADS
*RC Ckt432/M3/U11:A1 7.417e-03
*END

*R_NET Ckt432/M3/n14 1.237e+00
*DRIVER Ckt432/M3/U14:ZN
*CELL NAND4_X1
*C2_R1_C1 6.186e-01 6.236e-03 6.186e-01 
*LOADS
*RC Ckt432/M3/U11:A2 7.715e-03
*END

*R_NET Ckt432/M3/n15 1.275e+00
*DRIVER Ckt432/M3/U12:ZN
*CELL NAND4_X1
*C2_R1_C1 6.373e-01 6.236e-03 6.373e-01 
*LOADS
*RC Ckt432/M3/U11:A3 7.948e-03
*END

*R_NET Ckt432/M3/n16 1.970e+00
*DRIVER Ckt432/M3/U13:ZN
*CELL INV_X1
*C2_R1_C1 9.848e-01 6.236e-03 9.848e-01 
*LOADS
*RC Ckt432/M3/U12:A4 1.228e-02
*END

*R_NET Ckt432/M3/n17 1.970e+00
*DRIVER Ckt432/M3/U15:ZN
*CELL INV_X1
*C2_R1_C1 9.848e-01 6.236e-03 9.848e-01 
*LOADS
*RC Ckt432/M3/U14:A4 1.228e-02
*END

*R_NET Ckt432/M3/n18 1.970e+00
*DRIVER Ckt432/M3/U17:ZN
*CELL INV_X1
*C2_R1_C1 9.848e-01 6.236e-03 9.848e-01 
*LOADS
*RC Ckt432/M3/U16:A4 1.228e-02
*END

*R_NET Ckt432/M3/n19 1.970e+00
*DRIVER Ckt432/M3/U19:ZN
*CELL INV_X1
*C2_R1_C1 9.848e-01 6.236e-03 9.848e-01 
*LOADS
*RC Ckt432/M3/U18:A4 1.228e-02
*END

*R_NET Ckt432/M3/n20 1.970e+00
*DRIVER Ckt432/M3/U21:ZN
*CELL INV_X1
*C2_R1_C1 9.848e-01 6.236e-03 9.848e-01 
*LOADS
*RC Ckt432/M3/U20:A4 1.228e-02
*END

*R_NET Ckt432/M4/n1 1.931e+00
*DRIVER Ckt432/M4/U3:ZN
*CELL NAND2_X1
*C2_R1_C1 9.655e-01 6.236e-03 9.655e-01 
*LOADS
*RC Ckt432/M4/U1:A2 1.204e-02
*END

*R_NET Ckt432/M4/n2 1.960e+00
*DRIVER Ckt432/M4/U2:ZN
*CELL AOI22_X1
*C2_R1_C1 9.801e-01 6.236e-03 9.801e-01 
*LOADS
*RC Ckt432/M4/U1:A3 1.222e-02
*END

*R_NET Ckt432/M4/n3 1.931e+00
*DRIVER Ckt432/M4/U6:ZN
*CELL NAND2_X1
*C2_R1_C1 9.655e-01 6.236e-03 9.655e-01 
*LOADS
*RC Ckt432/M4/U4:A2 1.204e-02
*END

*R_NET Ckt432/M4/n4 1.960e+00
*DRIVER Ckt432/M4/U5:ZN
*CELL AOI22_X1
*C2_R1_C1 9.801e-01 6.236e-03 9.801e-01 
*LOADS
*RC Ckt432/M4/U4:A3 1.222e-02
*END

*R_NET Ckt432/M4/n5 1.931e+00
*DRIVER Ckt432/M4/U9:ZN
*CELL NAND2_X1
*C2_R1_C1 9.655e-01 6.236e-03 9.655e-01 
*LOADS
*RC Ckt432/M4/U7:A2 1.204e-02
*END

*R_NET Ckt432/M4/n6 1.960e+00
*DRIVER Ckt432/M4/U8:ZN
*CELL AOI22_X1
*C2_R1_C1 9.801e-01 6.236e-03 9.801e-01 
*LOADS
*RC Ckt432/M4/U7:A3 1.222e-02
*END

*R_NET Ckt432/M4/n7 1.931e+00
*DRIVER Ckt432/M4/U12:ZN
*CELL NAND2_X1
*C2_R1_C1 9.655e-01 6.236e-03 9.655e-01 
*LOADS
*RC Ckt432/M4/U10:A2 1.204e-02
*END

*R_NET Ckt432/M4/n8 1.960e+00
*DRIVER Ckt432/M4/U11:ZN
*CELL AOI22_X1
*C2_R1_C1 9.801e-01 6.236e-03 9.801e-01 
*LOADS
*RC Ckt432/M4/U10:A3 1.222e-02
*END

*R_NET Ckt432/M4/n9 1.931e+00
*DRIVER Ckt432/M4/U15:ZN
*CELL NAND2_X1
*C2_R1_C1 9.655e-01 6.236e-03 9.655e-01 
*LOADS
*RC Ckt432/M4/U13:A2 1.204e-02
*END

*R_NET Ckt432/M4/n10 1.960e+00
*DRIVER Ckt432/M4/U14:ZN
*CELL AOI22_X1
*C2_R1_C1 9.801e-01 6.236e-03 9.801e-01 
*LOADS
*RC Ckt432/M4/U13:A3 1.222e-02
*END

*R_NET Ckt432/M4/n11 1.931e+00
*DRIVER Ckt432/M4/U18:ZN
*CELL NAND2_X1
*C2_R1_C1 9.655e-01 6.236e-03 9.655e-01 
*LOADS
*RC Ckt432/M4/U16:A2 1.204e-02
*END

*R_NET Ckt432/M4/n12 1.960e+00
*DRIVER Ckt432/M4/U17:ZN
*CELL AOI22_X1
*C2_R1_C1 9.801e-01 6.236e-03 9.801e-01 
*LOADS
*RC Ckt432/M4/U16:A3 1.222e-02
*END

*R_NET Ckt432/M4/n13 1.931e+00
*DRIVER Ckt432/M4/U21:ZN
*CELL NAND2_X1
*C2_R1_C1 9.655e-01 6.236e-03 9.655e-01 
*LOADS
*RC Ckt432/M4/U19:A2 1.204e-02
*END

*R_NET Ckt432/M4/n14 1.960e+00
*DRIVER Ckt432/M4/U20:ZN
*CELL AOI22_X1
*C2_R1_C1 9.801e-01 6.236e-03 9.801e-01 
*LOADS
*RC Ckt432/M4/U19:A3 1.222e-02
*END

*R_NET Ckt432/M4/n15 1.931e+00
*DRIVER Ckt432/M4/U24:ZN
*CELL NAND2_X1
*C2_R1_C1 9.655e-01 6.236e-03 9.655e-01 
*LOADS
*RC Ckt432/M4/U22:A2 1.204e-02
*END

*R_NET Ckt432/M4/n16 1.960e+00
*DRIVER Ckt432/M4/U23:ZN
*CELL AOI22_X1
*C2_R1_C1 9.801e-01 6.236e-03 9.801e-01 
*LOADS
*RC Ckt432/M4/U22:A3 1.222e-02
*END

*R_NET Ckt432/M4/n17 1.931e+00
*DRIVER Ckt432/M4/U27:ZN
*CELL NAND2_X1
*C2_R1_C1 9.655e-01 6.236e-03 9.655e-01 
*LOADS
*RC Ckt432/M4/U25:A2 1.204e-02
*END

*R_NET Ckt432/M4/n18 1.960e+00
*DRIVER Ckt432/M4/U26:ZN
*CELL AOI22_X1
*C2_R1_C1 9.801e-01 6.236e-03 9.801e-01 
*LOADS
*RC Ckt432/M4/U25:A3 1.222e-02
*END

*R_NET Ckt432/M5/n1 1.284e+00
*DRIVER Ckt432/M5/U2:ZN
*CELL OR4_X1
*C2_R1_C1 6.422e-01 6.236e-03 6.422e-01 
*LOADS
*RC Ckt432/M5/U1:A2 8.009e-03
*END

*R_NET Ckt432/M5/n2 3.268e+00
*DRIVER Ckt432/M5/U13:ZN
*CELL INV_X1
*C2_R1_C1 1.634e+00 1.407e-02 1.634e+00 
*LOADS
*RC Ckt432/M5/U10:B2 1.391e-02
*RC Ckt432/M5/U2:A1 9.079e-03
*END

*R_NET Ckt432/M5/n3 1.248e+00
*DRIVER Ckt432/M5/U3:ZN
*CELL INV_X1
*C2_R1_C1 6.240e-01 6.236e-03 6.240e-01 
*LOADS
*RC Ckt432/M5/U2:A2 7.783e-03
*END

*R_NET Ckt432/M5/n4 3.244e+00
*DRIVER Ckt432/M5/U7:ZN
*CELL NAND2_X1
*C2_R1_C1 1.622e+00 1.407e-02 1.622e+00 
*LOADS
*RC Ckt432/M5/U6:A2 1.386e-02
*RC Ckt432/M5/U2:A3 8.956e-03
*END

*R_NET Ckt432/M5/n5 1.931e+00
*DRIVER Ckt432/M5/U6:ZN
*CELL NAND3_X1
*C2_R1_C1 9.655e-01 6.236e-03 9.655e-01 
*LOADS
*RC Ckt432/M5/U5:A2 1.204e-02
*END

*R_NET Ckt432/M5/n6 1.972e+00
*DRIVER Ckt432/M5/U10:ZN
*CELL AOI221_X1
*C2_R1_C1 9.859e-01 6.236e-03 9.859e-01 
*LOADS
*RC Ckt432/M5/U8:B1 1.230e-02
*END

*R_NET Ckt432/M5/n7 1.882e+00
*DRIVER Ckt432/M5/U9:ZN
*CELL INV_X1
*C2_R1_C1 9.408e-01 6.236e-03 9.408e-01 
*LOADS
*RC Ckt432/M5/U8:B2 1.173e-02
*END

*R_NET Ckt432/M5/n8 2.016e+00
*DRIVER Ckt432/M5/U12:ZN
*CELL INV_X1
*C2_R1_C1 1.008e+00 6.236e-03 1.008e+00 
*LOADS
*RC Ckt432/M5/U10:C2 1.257e-02
*END

*R_NET Ckt432/M5/n9 1.987e+00
*DRIVER Ckt432/M5/U11:ZN
*CELL INV_X1
*C2_R1_C1 9.936e-01 6.236e-03 9.936e-01 
*LOADS
*RC Ckt432/M5/U10:A 1.239e-02
*END
